<?xml version="1.0"?>

<!--7 Cars leaving the Computer Science Building and campus of the University of Erlangen-Nuremberg-->

<routes>

   <vType id="dsrc" accel="2.6" decel="4.5" sigma="0.5" length="2.5" minGap="2.5" maxSpeed="14" color="1,1,0"/>
   <vType id="wifi" accel="3.6" decel="4.5" sigma="0.5" length="2.5" minGap="2.5" maxSpeed="14" color="1,1,0"/>
   
   <route id="route0" edges="-39539626 -5445204#2 -5445204#1 113939244#2 -126606716 23339459 30405358#1 85355912 85355911#0 85355911#1 30405356 5931612 30350450#0 30350450#1 30350450#2 4006702#0 4006702#1 4900043 4900041#1"/>
   
	<vehicle id="v1" type="wifi" route="route0" depart="1" />
	<vehicle id="v2" type="wifi" route="route0" depart="2" />
	<vehicle id="v3" type="dsrc" route="route0" depart="3" />
	<vehicle id="v4" type="dsrc" route="route0" depart="4" />
	<vehicle id="v5" type="dsrc" route="route0" depart="5" />
	<vehicle id="v6" type="wifi" route="route0" depart="6" />
	<vehicle id="v7" type="wifi" route="route0" depart="7" />
	
</routes>
